Circuit: * Z:\home\tumbar\git\CMPE460\lab8\prelab.asc

Direct Newton iteration for .op point succeeded.

Date: Fri Mar 25 09:12:55 2022
Total elapsed time: 0.097 seconds.

tnom = 27
temp = 27
method = trap
totiter = 3
traniter = 0
tranpoints = 0
accept = 0
rejected = 0
matrix size = 8
fillins = 1
solver = Normal
Matrix Compiler1:      17 opcodes
Matrix Compiler2: 554 bytes object code size
