Circuit: * Z:\home\tumbar\git\CMPE460\lab7\butterworth.asc

Direct Newton iteration for .op point succeeded.

Date: Sun Mar 20 20:28:30 2022
Total elapsed time: 0.099 seconds.

tnom = 27
temp = 27
method = trap
totiter = 19
traniter = 0
tranpoints = 0
accept = 0
rejected = 0
matrix size = 39
fillins = 31
solver = Normal
Matrix Compiler1:     195 opcodes
Matrix Compiler2: 3.62 KB object code size
