Circuit: * Z:\home\tumbar\git\CMPE460\lab7\butterworth.asc

Direct Newton iteration for .op point succeeded.

Date: Tue Mar 22 12:38:30 2022
Total elapsed time: 0.069 seconds.

tnom = 27
temp = 27
method = trap
totiter = 10
traniter = 0
tranpoints = 0
accept = 0
rejected = 0
matrix size = 40
fillins = 45
solver = Normal
Matrix Compiler1:     232 opcodes
Matrix Compiler2: 4.00 KB object code size
