Circuit: * Z:\home\tumbar\git\CMPE460\lab7\Draft1.asc

Direct Newton iteration for .op point succeeded.

Date: Sun Mar 20 21:08:22 2022
Total elapsed time: 0.070 seconds.

tnom = 27
temp = 27
method = trap
totiter = 18
traniter = 0
tranpoints = 0
accept = 0
rejected = 0
matrix size = 100
fillins = 108
solver = Normal
Matrix Compiler1:     539 opcodes
Matrix Compiler2: 10.10 KB object code size
