Circuit: * Z:\home\tumbar\git\CMPE460\top\msp432p401r\lab7\Draft6.asc

Direct Newton iteration for .op point succeeded.

Date: Fri Mar 18 10:10:05 2022
Total elapsed time: 0.097 seconds.

tnom = 27
temp = 27
method = trap
totiter = 13
traniter = 0
tranpoints = 0
accept = 0
rejected = 0
matrix size = 38
fillins = 45
solver = Normal
Matrix Compiler1:     227 opcodes
Matrix Compiler2: 3.82 KB object code size
