Circuit: * Z:\home\tumbar\git\CMPE460\top\msp432p401r\lab7\Draft5.asc


Date: Fri Mar 18 09:37:32 2022
Total elapsed time: 0.097 seconds.

tnom = 27
temp = 27
method = trap
totiter = 0
traniter = 0
tranpoints = 0
accept = 0
rejected = 0
matrix size = 4
fillins = 0
solver = Normal

