Circuit: * Z:\home\tumbar\git\CMPE460\top\msp432p401r\lab7\rc_low_pass.asc


Date: Fri Mar 18 09:44:46 2022
Total elapsed time: 0.112 seconds.

tnom = 27
temp = 27
method = trap
totiter = 0
traniter = 0
tranpoints = 0
accept = 0
rejected = 0
matrix size = 3
fillins = 0
solver = Normal

