Circuit: * Z:\home\tumbar\git\CMPE460\lab7\sallen_key.asc

Direct Newton iteration for .op point succeeded.

Date: Sun Mar 20 19:49:15 2022
Total elapsed time: 0.067 seconds.

tnom = 27
temp = 27
method = trap
totiter = 10
traniter = 0
tranpoints = 0
accept = 0
rejected = 0
matrix size = 39
fillins = 31
solver = Normal
Matrix Compiler1:     195 opcodes
Matrix Compiler2: 3.62 KB object code size
